FoamFile
{
    version     2.0;
    format      ascii;
    class       polyBoundaryMesh;
    object      boundary;
}

1
(
    walls
    {
        type            wall;
        nFaces          6;
        startFace       0;
    }
)
